
title                           = untitled

AXISYM                          = .false.


SIMULATION_TYPE                 = 1  
NOISE_TOMOGRAPHY                = 0  
SAVE_FORWARD                    = .false. 


nproc                           = 1              
partitioning_method             = 3              
PERFORM_CUTHILL_MCKEE           = .false.        

ngnod                           = 9              
initialfield                    = .false.        
add_Bielak_conditions           = .false.        
assign_external_model           = .true.
READ_EXTERNAL_SEP_FILE          = .true.
ATTENUATION_VISCOELASTIC_SOLID  = .false.        
ATTENUATION_PORO_FLUID_PART     = .false.        
Q0                              =  1             
freq0                           =  10            
p_sv                            = .false.         


nt                              = 100
deltat                          = 1.0d-3         
USER_T0                         = 0.0d0          
time_stepping_scheme            = 1              

ACOUSTIC_FORCING                = .false.

NSOURCES                        = 1              
force_normal_to_surface         = .false.        


N_SLS                           = 2                      
f0_attenuation                  = 5.196152422706633      
READ_VELOCITIES_AT_f0           = .false.


seismotype                      = 1              
NSTEP_BETWEEN_OUTPUT_SEISMOS    = 5000000        
save_ASCII_seismograms          = .false.         
save_binary_seismograms_single  = .true.         
save_binary_seismograms_double  = .false.        
SU_FORMAT                       = .true.        
subsamp_seismos                 = 1              
use_existing_STATIONS           = .true.        
nreceiversets                   = 1              
anglerec                        = 0.d0           
rec_normal_to_surface           = .false.        
save_ASCII_kernels              = .true.         


nrec                            = 1 
xdeb                            = 0.           
zdeb                            = 0.          
xfin                            = 0.          
zfin                            = 0.          
enreg_surf_same_vertical        = .false.         


NSTEP_BETWEEN_OUTPUT_INFO       = 100            
NSTEP_BETWEEN_OUTPUT_IMAGES     = 100            
cutsnaps                        = 1.             

output_color_image              = .false. 
imagetype_JPEG                  = 3              
factor_subsample_image          = 1            
USE_CONSTANT_MAX_AMPLITUDE      = .false.
CONSTANT_MAX_AMPLITUDE_TO_USE   = 1.17d4
POWER_DISPLAY_COLOR             = 0.30d0         
DRAW_SOURCES_AND_RECEIVERS      = .true.         
DRAW_WATER_IN_BLUE              = .true.         
USE_SNAPSHOT_NUMBER_IN_FILENAME = .false.        

output_postscript_snapshot      = .false.         
imagetype_postscript            = 1              
meshvect                        = .false.         
modelvect                       = .false.        
boundvect                       = .true.         
interpol                        = .true.         
pointsdisp                      = 6              
subsamp_postscript              = 1              
sizemax_arrows                  = 1.d0           
US_LETTER                       = .false.        

NSTEP_BETWEEN_OUTPUT_WAVE_DUMPS = 100            
output_wavefield_dumps          = .false.        
imagetype_wavefield_dumps       = 1              
use_binary_for_wavefield_dumps  = .false.        

output_grid_Gnuplot             = .false.        
output_grid_ASCII               = .false.        
output_energy                   = .false.        


nbmodels                        = 1              
1 1 2600.d0 5800.d0 3500.0d0 0 0 10.d0 10.d0 0 0 0 0 0 0


read_external_mesh              = .false.


PML_BOUNDARY_CONDITIONS         = .false.
NELEM_PML_THICKNESS             = 3
ROTATE_PML_ACTIVATE             = .false.
ROTATE_PML_ANGLE                = 30.
STACEY_ABSORBING_CONDITIONS     = .true.
ADD_SPRING_TO_STACEY            = .false.


ADD_PERIODIC_CONDITIONS         = .false.
PERIODIC_HORIZ_DIST             = 0.3597d0


mesh_file                       = ./DATA/Mesh_canyon/canyon_mesh_file   
nodes_coords_file               = ./DATA/Mesh_canyon/canyon_nodes_coords_file   
materials_file                  = ./DATA/Mesh_canyon/canyon_materials_file   
free_surface_file               = ./DATA/Mesh_canyon/canyon_free_surface_file   
absorbing_surface_file          = ./DATA/Mesh_canyon/canyon_absorbing_surface_file   
CPML_element_file               = Elements_CPML_list  
tangential_detection_curve_file = ./DATA/courbe_eros_nodes 





interfacesfile                  = interfaces.dat
xmin                            = 0.d0
xmax                            = 0.d0        
nx                              = 40             


absorbbottom                    = .true.
absorbright                     = .true.
absorbtop                       = .true.
absorbleft                      = .true.


nbregions                       = 1
1 40  1 40 1
